#p external='/home/rxn_grp/programs/xtb-gaussian'  /sdd opt(nomicro)

R

0 1
Zr -0.00015800000000000284 -0.00019100000000000326 -0.00023800000000000015
Cl 0.0 0.0 -2.21604
Cl 2.215976 0.0 0.0
N 0.063241 -0.105828 1.964107
C -0.148476 1.019494 2.635522
C -0.92621 1.79026 1.683598
C 0.066171 1.655916 0.222527
C -0.751437 1.507318 -0.891646
C -2.032604 2.008603 -0.663194
C -1.431786 3.103015 -0.04109
C 0.267415 3.058817 0.100487
C 0.3413 1.297584 3.90052
C 1.116793 0.327002 4.512654
C 1.351818 -0.863105 3.83866
C 0.818457 -1.052247 2.571892
C 0.965172 -2.292873 1.74953
C -0.086383 -2.079264 0.680202
C -0.076278 -2.641242 -0.655812
C -1.31431 -2.326495 -1.15121
C -2.156367 -1.785673 -0.064142
C -1.524376 -2.055059 1.095578
H -1.893774 1.279212 1.568015
H -1.087967 2.813167 2.018927
H -0.325357 2.055609 -1.748511
H -3.035461 1.809357 -0.978135
H -1.968393 4.016606 0.214104
H 0.809019 3.496516 -0.739494
H 0.128912 2.24246 4.373633
H 1.533216 0.492785 5.49423
H 1.95543 -1.639701 4.281532
H 0.805389 -3.190762 2.359428
H 1.969577 -2.343539 1.312842
H 0.789692 -3.00183 -1.194827
H -1.67234 -2.481168 -2.158603
H -3.224381 -1.641865 -0.199787
H -1.871624 -1.863028 2.106386


