#p external='/home/rxn_grp/programs/xtb-gaussian'  /sdd opt(nomicro)

R

0 1
Zr 0.0 0.0 0.0
Cl 0.0 0.0 -1.9389999999999998
Cl 1.9389999999999998 0.0 0.0
N 0.16592080324056666 0.019290328289962355 1.7138792752952206
C -0.7446677864264502 0.4283641224134656 2.726933627600742
C -2.0312320229984198 0.956787928103639 2.1217962619813546
C -1.5828699513471465 1.4280392232535004 0.7979306692306052
C -1.8220695272587961 1.2682793061376756 -0.5094465424047984
C -0.7907303024539097 1.9971623303855306 -1.234188067956953
C 0.09552070482961847 2.5448569037087196 -0.39123062347694215
C -0.40680111448190404 2.2815282619109047 0.8972587329497577
C -0.5445445898144697 0.3478676592963599 4.099399771591691
C 0.6303706723359193 -0.2440852066151345 4.545810718443825
C 1.4848622045924473 -0.8392480772402741 3.620948427025802
C 1.1585233379119992 -0.7509085897440635 2.2670833505337584
C 1.4462276967335084 -1.8803587557491364 1.3365363521673306
C 0.1676784603654705 -2.097343130836721 0.5913406249658776
C -1.207245647357702 -1.9264963143171323 1.0742890290785998
C -1.9626812035187962 -1.6976098880464725 -0.004344495539908396
C -1.1334600243042001 -1.8861780413664428 -1.1768113535576397
C 0.13601212699938126 -2.1400240215599977 -0.8301410796780216
H -2.793394943362014 0.176277516160145 2.059583891791574
H -2.430778953836518 1.7831817220664972 2.720412395807055
H -2.6051256004267396 0.7036630906782841 -0.9796040837526246
H -0.7418045103130987 2.039657594273388 -2.311621298205481
H 0.9644340570599166 3.1319386085775185 -0.6372629761273065
H -0.05802400224719216 2.7942707617426144 1.7835399374946324
H -1.2831696810158013 0.7232179839265317 4.798186730004582
H 0.8258775772780491 -0.3352789643770931 5.610477711034957
H 2.2959523735760023 -1.4748864986345103 3.959625293393607
H 1.7210927180575193 -2.7919161020467747 1.8778826909235637
H 2.271864587460686 -1.6058427119625103 0.6717930516774595
H -1.533755402023916 -2.011717179807832 2.0978398739845514
H -3.0341730730146157 -1.5631219711815825 -0.022689088079580637
H -1.5138343946520023 -1.842482415489805 -2.186746389722392
H 0.9659613270034797 -2.316128237832898 -1.4904418711331728


