#p external='/home/rxn_grp/programs/xtb-gaussian'  /sdd opt(nomicro)

R

0 1
Zr 0.0 0.0 0.0
Cl 0.0 0.0 -1.9389999999999998
Cl 1.9389999999999998 0.0 0.0
N 0.16339562327510623 0.023801138997550007 1.7140651609775395
C -0.6732790237174736 0.5288326528154268 2.7405058116128775
C -1.940884216660751 1.1029042766715225 2.1600261505333958
C -1.5095423707866076 1.4868267275064802 0.8039529702335816
C -1.8206462636730487 1.2261869180050378 -0.4707741779616842
C -0.866635836758789 1.9241087509046517 -1.309757614267002
C 0.04459642652968465 2.563349151315934 -0.5632222856053228
C -0.31515466395924285 2.3177964628012933 0.7789924495730772
C -0.4200035658003741 0.5002992485251209 4.106209525203174
C 0.7376804527997827 -0.13619642254617348 4.534226761441807
C 1.5194784817373097 -0.8166136383091059 3.6048577341123584
C 1.1412378238203158 -0.7694608412510341 2.2627576818416215
C 1.380341468179033 -1.92832837660312 1.3559321430015663
C 0.0983844284758762 -2.1067451716339787 0.6088422286250252
C -1.2684907288343414 -1.877958315778245 1.0931412787536277
C -2.020118404265254 -1.6580913279995588 0.010775535980201338
C -1.192774082052184 -1.8517217684082574 -1.16355004619662
C 0.07255045276689814 -2.122281680214696 -0.8156490646437486
H -2.277142950436679 1.9753306043166503 2.7310643191184254
H -2.7435012689301392 0.360509206487825 2.1518978128350494
H -2.656341862426804 0.6697705456466758 -0.8506246700420583
H -0.9041965124476861 1.918367991642674 -2.38851854166966
H 0.8661079386791785 3.1713107254501574 -0.9062145510152478
H 0.15136725641671722 2.8044079921443754 1.622878276231341
H -1.1058720438380099 0.9510655083508878 4.814272942385199
H 0.9736501392430873 -0.18795984389282813 5.593220023738829
H 2.315095096871693 -1.473927912006116 3.9384311612021725
H 1.6106159971600742 -2.8393546143798205 1.918723153614007
H 2.221766968993155 -1.7061807254459824 0.6914851448223732
H -1.5948906745470277 -1.9302802841808162 2.118883936310851
H -3.089076462754067 -1.5027569799065064 -0.005801587176664309
H -1.5696582347066408 -1.788097646409799 -2.1735107803540745
H 0.9027922482563381 -2.2991482267464924 -1.4749032015086134


