#p external='/home/rxn_grp/programs/xtb-gaussian'  /sdd opt(nomicro)

R

0 1
Zr 0.0 0.0 0.0
Cl 0.0 0.0 -2.6886850614540307
Cl 2.3115247542412787 -1.2198806546402843 -0.9174118480618105
N -0.002948786503026136 -0.003164883815585961 2.459996196779295
C -0.3778112748178287 1.2611577882627922 2.7725592811323363
C 0.4242053454452539 2.363698303440248 2.120123426822868
C -0.19335203209272447 2.7311468099904843 0.8019615071474655
C -1.5221666031772865 2.7783140756535416 0.4842166970770954
C -1.5935977098112017 2.738639314064939 -0.9596672810769395
C -0.3788228568369859 3.1363430693129053 -1.4315715650668683
C 0.5906970178320806 3.283268822858576 -0.3333109522181975
C -1.594300578913024 1.5694697191611542 3.3905378362205907
C -2.519967227663751 0.5548644976530057 3.5837261587772042
C -2.167579121087667 -0.7447432640034255 3.2499368480134505
C -0.8909797720135748 -0.9899484319461317 2.7392509227742967
C -0.48034729125759745 -2.3882816497256574 2.3593797328340944
C -0.6233066572180296 -2.6415941881408322 0.8984342264724661
C 0.3445336235157578 -3.4018892937479963 0.09360101955202152
C -0.12485781562869575 -3.2255426471690676 -1.1762499910662632
C -1.5250477514956502 -2.714011954895319 -1.1177125519836992
C -1.8816909768285421 -2.5434973555997806 0.17744883787617727
H 1.4487849681193785 1.9987589352417603 1.9712069299438844
H 0.48822322277595004 3.2390879639294603 2.775339419067649
H -2.366908621151742 2.506164302359078 1.0949600198547274
H -2.445270819488918 2.4188109677227034 -1.5380021574606824
H -0.09052543896418155 3.1319173132937257 -2.4724357189261563
H 1.6397847519168427 3.049412656885366 -0.4645552907022373
H -1.8737948685749848 2.6030871035348677 3.5741309584397385
H -3.5228676810976274 0.7845332511883891 3.931898847070144
H -2.8887870876248867 -1.5486271286239444 3.356171921545117
H 0.5586611061615044 -2.53537357841473 2.6788282458533446
H -1.0782170264272264 -3.120854475411442 2.9151831978306473
H 1.331672976581192 -3.7040126789245913 0.39984104101758594
H 0.39611782461801026 -3.440109739409054 -2.0942145689845812
H -2.1467986850236795 -2.561292464251328 -1.9847491630934828
H -2.8195510034237166 -2.170688213267944 0.5567337960387312


