#p external='/home/rxn_grp/programs/xtb-gaussian'  /sdd opt(nomicro)

R

0 1
Zr 0.00011300000000001143 -0.0007539999999999962 -0.00025100000000002226
Cl 0.00011800000000001143 0.0 -2.492838
Cl 2.492976 -0.00027299999999999623 0.00022499999999997774
N -0.006128999999999989 0.0018410000000000037 2.211419
C -0.85852 0.714566 2.967011
C -1.011482 2.131575 2.53229
C -0.785478 2.197858 1.023525
C 0.304908 2.886399 0.561371
C 0.10267100000000001 3.019194 -0.934446
C -1.204576 2.696922 -1.216939
C -1.862435 2.297468 0.02721899999999998
C -1.610224 0.145612 3.986561
C -1.552363 -1.227595 4.186327
C -0.799724 -1.987706 3.313135
C -0.048927999999999985 -1.344483 2.323494
C 0.689112 -2.063594 1.286662
C 0.12508 -1.914384 -0.373828
C 0.197629 -3.326278 -0.675487
C -1.074515 -3.499738 0.04162299999999998
C -2.186207 -2.231362 0.06307199999999998
C -1.299572 -1.780919 -0.803343
H -0.242294 2.742699 3.016432
H -1.98727 2.523903 2.829424
H 1.218669 3.128865 1.083063
H 0.83041 3.435101 -1.609662
H -1.699634 2.782519 -2.169237
H -2.888214 1.977076 0.15231499999999998
H -2.248304 0.770592 4.590468
H -2.126337 -1.694656 4.971737
H -0.785697 -3.064507 3.378493
H 0.786733 -3.123182 1.524699
H 1.708206 -1.656086 1.202624
H 0.709202 -3.983905 -1.34075
H -1.519182 -4.477174 0.23199899999999998
H -3.225143 -2.403535 -0.10874300000000003
H -1.573913 -1.278237 -1.745952


