#p external='/home/rxn_grp/programs/xtb-gaussian'  /sdd opt(nomicro)

R

0 1
Zr 0.0 0.0 0.0
Cl -1.574017201197586 -0.1252336863953942 -1.9292058921032604
Cl 2.044453296510902 -0.778016141763911 -1.1958054195982315
N 0.017690398440943736 -0.06202227622724269 2.213060389382674
C 0.08536039257385403 1.128001475163964 2.8473396644322135
C -1.0091551903652947 2.0446177791843496 2.4319402004465465
C -0.7907341048466484 2.2787708406250666 0.9884713560905847
C 0.29778540894416283 2.8943759400493896 0.4817255088235008
C 0.1362727086954488 3.016644861241041 -0.9434474318411039
C -1.1300664650580885 2.6822704787740985 -1.2533850897492889
C -1.7966569026173411 2.255786344475675 -0.04134829629095455
C 1.1674692010875387 1.535146623000139 3.621397094948674
C 2.205830243162968 0.6364132356529113 3.826003274511143
C 2.104452225770124 -0.6426554770801034 3.2938746909833143
C 0.9903338797576758 -0.9572936152199683 2.519680091895432
C 0.754691579490982 -2.369273621869386 2.066026169227238
C -0.18421770055936482 -2.4289911632362324 0.9225174884233274
C -1.6146285138420948 -2.227274836814497 0.9661301124329804
C -1.996357887176848 -2.2477712424842275 -0.3219049402978422
C -0.9219573678351709 -2.8177845430692314 -1.130266206643488
C 0.1452236987925194 -3.0374824971811774 -0.34452407023469367
H -1.980169118802445 1.5714496252083816 2.6172509330389673
H -0.9927028543223572 2.9833155899215162 2.997781443148859
H 1.1860820000768226 3.2020595335443143 1.0109856669901174
H 0.8904099315381975 3.3805424429328137 -1.6240796482753346
H -1.5813598813989156 2.7018851365564496 -2.232945867900717
H -2.7726076374264776 1.8087820476944794 0.020382487765585447
H 1.225280091996058 2.544290315380625 4.01412224620684
H 3.080350057718365 0.9251724447843872 4.400847422177715
H 2.8762430723901726 -1.3804852424796574 3.4845082490114136
H 1.7131678757985127 -2.826026544766664 1.7913440984366906
H 0.35120635890484775 -2.9439121332218736 2.9088212849723147
H -2.1935106476160775 -1.940175806837884 1.8271272829926548
H -2.9920331226641412 -2.0599123315618946 -0.6926666305572274
H -1.0344858952033817 -3.1178191649108267 -2.1607766959200214
H 1.0757509927709379 -3.5069406909354783 -0.6149949150452464


