36
0	1	-57.74558294139694
Zr 0.492241 0.033756 -0.061221
Cl 2.951556 -0.363221 1.070105
Cl -0.619583 0.297944 2.425541
N -1.689977 0.424223 -1.088401
C -2.030685 1.353376 -0.172812
C -1.21022 2.62465 -0.159447
C 0.254628 2.387096 -0.500588
C 1.400481 2.616355 0.262031
C 2.467626 1.869128 -0.435893
C 1.98787 1.434674 -1.645355
C 0.689693 2.044299 -1.856438
C -3.107817 1.154861 0.689036
C -3.747699 -0.084056 0.683982
C -3.276296 -1.092951 -0.154137
C -2.231369 -0.790991 -1.018895
C -1.443512 -1.788215 -1.809221
C -0.218728 -2.079707 -0.988089
C -0.342577 -2.797681 0.35729
C 0.90636 -2.697637 0.905414
C 1.844041 -2.35089 -0.171004
C 1.174843 -2.120076 -1.344306
H -1.662271 3.354288 -0.843569
H -1.262549 3.07643 0.840597
H 1.410921 2.876656 1.313028
H 3.361097 1.512788 0.054081
H 2.440631 0.704696 -2.305101
H -0.024331 1.646689 -2.587531
H -3.426425 1.928288 1.37789
H -4.565805 -0.278066 1.369487
H -3.691088 -2.092053 -0.099476
H -2.031501 -2.693023 -2.010096
H -1.174712 -1.372308 -2.788192
H -1.274561 -2.981144 0.86591
H 1.191678 -2.873988 1.927537
H 2.911836 -2.30247 -0.032464
H 1.593897 -1.810273 -2.289844
