36
0	1	-57.80380174597555
Zr 0.656265 -0.560318 0.213151
Cl 2.809513 -0.590161 1.112419
Cl -0.31365 -0.917766 2.315204
N -1.472084 0.212662 -0.155856
C -1.690586 1.425831 0.367339
C -0.462354 2.229046 0.695175
C 0.752884 1.611602 -0.005214
C 1.17105 2.108522 -1.384788
C 0.980569 3.611489 -1.495323
C 1.719695 3.870293 -0.418581
C 2.026588 2.403925 -0.161272
C -2.981662 1.892438 0.588827
C -4.054248 1.073887 0.27554
C -3.813763 -0.178675 -0.264024
C -2.498632 -0.580463 -0.469168
C -2.165709 -1.925797 -1.073316
C -0.678964 -2.118172 -1.185997
C 0.124417 -2.948541 -0.372752
C 1.469275 -2.762825 -0.754956
C 1.508967 -1.792106 -1.778986
C 0.177939 -1.388069 -2.048807
H -0.624524 3.2823 0.428488
H -0.301163 2.180154 1.784188
H 1.422374 1.453394 -2.213958
H 0.390066 4.202343 -2.171598
H 1.972151 4.755616 0.133803
H 3.005228 2.00893 0.074572
H -3.137051 2.874308 1.00746
H -5.066132 1.408457 0.448084
H -4.627687 -0.838407 -0.52119
H -2.642944 -1.98954 -2.058231
H -2.601032 -2.709515 -0.445282
H -0.239743 -3.680396 0.340799
H 2.318452 -3.324653 -0.385144
H 2.389209 -1.5076 -2.343943
H -0.145681 -0.750848 -2.864852
