36
0	1	-57.91633815482598
Zr 0.83082 0.0 0.089195
Cl 2.797426 -0.000573 1.433544
Cl -0.264844 -0.000745 2.189813
N -1.67039 0.0 -0.24125
C -2.342112 1.149548 -0.131328
C -1.543252 2.427165 -0.173014
C -0.113002 2.180203 -0.555283
C 1.034692 2.474349 0.219254
C 2.170566 2.118663 -0.541847
C 1.733379 1.566639 -1.75778
C 0.320431 1.601602 -1.773655
C -3.720415 1.189196 0.045594
C -4.421989 -0.000275 0.128149
C -3.72008 -1.189584 0.045879
C -2.341793 -1.149616 -0.130993
C -1.542545 -2.427014 -0.172051
C -0.112696 -2.179866 -0.555695
C 0.319392 -1.600666 -1.774268
C 1.732329 -1.565362 -1.759771
C 2.170864 -2.117777 -0.544505
C 1.035833 -2.474159 0.217538
H -2.01906 3.122347 -0.87464
H -1.584818 2.882781 0.822957
H 1.044628 2.983843 1.177347
H 3.198784 2.305422 -0.263392
H 2.369387 1.304782 -2.592674
H -0.313947 1.376677 -2.622278
H -4.22516 2.139261 0.125141
H -5.492728 -0.000413 0.26551
H -4.224586 -2.139755 0.125648
H -1.58312 -2.88155 0.824461
H -2.018695 -3.123105 -0.872536
H -0.315891 -1.375461 -2.622135
H 2.36742 -1.30297 -2.595189
H 3.199406 -2.304377 -0.26714
H 1.046827 -2.983913 1.175481
