36
0	1	-57.91633815482598
Zr -0.830859 0.0 -0.089236
Cl -2.797592 -0.001922 -1.433401
Cl 0.264758 -0.001152 -2.189835
N 1.670453 0.000104 0.241264
C 2.34231 1.149568 0.132039
C 1.543628 2.427286 0.174542
C 0.11297 2.180276 0.55523
C -0.32191 1.601953 1.773229
C -1.734878 1.567344 1.755826
C -2.170598 2.11938 0.539354
C -1.033821 2.474599 -0.220579
C 3.720617 1.189164 -0.044879
C 4.42204 -0.000343 -0.128223
C 3.719978 -1.189617 -0.046695
C 2.341707 -1.149597 0.130268
C 1.542274 -2.426895 0.170604
C 0.112836 -2.179758 0.555794
C -0.317872 -1.600231 1.774694
C -1.730784 -1.564643 1.761691
C -2.170733 -2.117131 0.546979
C -1.036571 -2.473957 -0.216188
H 1.586219 2.884119 -0.820813
H 2.018947 3.121501 0.877454
H 0.311473 1.377108 2.622617
H -2.371881 1.305821 2.590071
H -3.19847 2.306387 0.259798
H -1.042583 2.983877 -1.178793
H 4.225479 2.139219 -0.123812
H 5.492775 -0.000525 -0.265614
H 4.224354 -2.139805 -0.127103
H 2.018903 -3.123883 0.869875
H 1.581842 -2.880308 -0.826468
H 0.318372 -1.374931 2.621813
H -2.364905 -1.301936 2.597741
H -3.199606 -2.303533 0.270708
H -1.048698 -2.983998 -1.173971
