36
0	1	-57.91633815482598
Zr -0.830866 0.0 0.089211
Cl -2.797586 -0.002235 1.433381
Cl 0.264728 -0.001402 2.189867
N 1.670426 0.000106 -0.24119
C 2.341679 -1.149606 -0.1302
C 1.542202 -2.426884 -0.170467
C 0.11283 -2.179695 -0.555864
C -0.31762 -1.599986 -1.77478
C -1.730536 -1.564368 -1.76204
C -2.170731 -2.116995 -0.547483
C -1.036727 -2.473985 0.215836
C 3.719946 -1.189641 0.046711
C 4.422042 -0.000376 0.12817
C 3.720641 1.189131 0.044813
C 2.342316 1.14955 -0.132035
C 1.543689 2.4273 -0.174561
C 0.112983 2.180351 -0.555106
C -1.033696 2.474577 0.220909
C -2.170585 2.119469 -0.538899
C -1.735039 1.567608 -1.755518
C -0.322082 1.602255 -1.773135
H 2.018885 -3.123984 -0.869584
H 1.581622 -2.880155 0.826676
H 0.318793 -1.374667 -2.621766
H -2.364479 -1.30151 -2.598179
H -3.199664 -2.303376 -0.271421
H -1.049065 -2.984093 1.17358
H 4.224314 -2.139832 0.127133
H 5.492783 -0.000589 0.265514
H 4.22551 2.139188 0.123676
H 2.018988 3.121432 -0.877567
H 1.586388 2.884201 0.820757
H -1.042301 2.983663 1.179228
H -3.198413 2.306482 -0.259182
H -2.372181 1.306264 -2.589715
H 0.31119 1.377406 -2.622605
