#p external='/home/rxn_grp/programs/xtb-gaussian'  /sdd opt(nomicro)

R

0 1
Zr 0.0 0.0 0.0
Cl 0.0 0.0 -1.9389999999999998
Cl 1.9389999999999998 0.0 0.0
N 0.228997405430838 -0.0116991840937109 1.7066655552267662
C 1.238723376029046 0.7322757438833141 2.293685843640071
C 1.5363748704083093 1.933011449937861 1.4512024847302787
C 0.31110073012752976 2.105097151130173 0.6218358906453245
C 0.2652793037874879 2.0814564031271243 -0.7112092629217313
C -1.1133240119006074 1.9459768983705652 -1.1291833860143055
C -1.9226764156149836 1.8055378360173289 -0.06872461815462523
C -1.0828482993141997 1.9886078303118597 1.073316919008161
C 1.6209488567890469 0.7112390404345887 3.636101679526995
C 0.8108348601956157 0.031347026043729534 4.537612245239172
C -0.369161306340042 -0.5395188974999318 4.081310930764698
C -0.6202402651062437 -0.5138008208852374 2.712521946458095
C -1.867057375397788 -1.0936181895831298 2.115778407023686
C -1.4004823989412662 -1.6173784301766974 0.8238739307486432
C -0.15179107149535676 -2.368101799859153 0.8317398482465678
C 0.1815172206747314 -2.526656350339565 -0.44434463946777386
C -0.8389205236819556 -1.917005816521442 -1.2750206718324015
C -1.772667101804647 -1.3141571235826814 -0.5217531333416588
H 1.7002926207182067 2.825304887506318 2.0650507281414003
H 2.4302925236343804 1.749497997612912 0.8466403210176172
H 1.1023639951772322 2.03812891600647 -1.3857152416414726
H -1.4201300919370046 1.9073250822347356 -2.163456931460053
H -2.99343568452241 1.6851228930316022 -0.064664541713318
H -1.4255731701244125 2.207774444482126 2.073214273646866
H 2.444296770392185 1.3202648459128619 3.9931575930399834
H 1.0480241010135958 0.02744562403698089 5.5973814618147095
H -1.0676504584666795 -1.0015228288843954 4.769983452491922
H -2.6400268501227266 -0.32796546383754027 2.005633315803539
H -2.2660069106214364 -1.9026233471891387 2.737459136172644
H 0.40287400198511514 -2.7247021150192343 1.6848049249911676
H 1.0548177171638156 -3.034933473119572 -0.8223263172228169
H -0.8125143334158804 -1.933698868564957 -2.3537808116217835
H -2.6451200820059966 -0.785793961464928 -0.8555063698074872


