18
0	1	-36.684952685085285
Rh -0.45098 -0.21489 0.018058
C 2.943721 -1.742993 0.59489
C 2.684105 -0.666191 -0.458041
C 1.581019 0.296915 -0.030171
O 1.890559 1.426578 0.274553
H 2.067467 -2.374044 0.723388
H 3.778 -2.365503 0.28199
H 3.190611 -1.285868 1.550096
H 3.591014 -0.070099 -0.596661
H 2.417126 -1.140498 -1.404567
C -2.235105 -0.972424 0.112515
O -3.157554 -1.634308 0.144831
C -0.624785 1.228815 1.25409
O -0.625956 2.070332 2.0105
H -0.112072 -1.446086 -0.823532
C -0.453877 0.790231 -1.589829
O -0.344013 1.369493 -2.562638
H -0.112795 -1.110725 1.21799
