#p external='/home/rxn_grp/programs/xtb-gaussian'  /sdd opt(nomicro)

R

0 2
Cu 0.0 0.0 0.0
Cl -5.058872607027044 -2.4282594214074176 -4.102696551230066
O 0.06811227049981657 1.4176529586304296 0.008454079755569196
N -1.454892284219608 -0.056253211865200804 0.0033736161549217576
N -1.998303062598515 4.604058244600389 -1.402845593235667
C -2.1665987521683174 -0.7198914665431613 -0.9618042677137816
C -2.185468939584391 0.4689344998796337 0.9474790297116137
H -3.2154418352503193 0.16782569220670235 1.208873162586349
C -0.4957553654386675 3.727829926447947 0.1916986949180209
H 0.35234306659709824 3.9251237158389447 -0.45389934901794216
C -0.6055814868660389 2.2908697187794917 0.5609971470130503
C -1.7066536843184685 4.270724974400024 -0.06660984286492137
C -1.7791130295914843 1.8346132432295192 1.3392401676887322
C -3.9821876464044212 -1.86269916712877 -2.891072794930196
C -4.045622093997818 -2.3054525938187105 -1.6229386374189545
H -4.746022680149065 -3.0687426407616583 -1.3095751244179985
C -2.9942486686736483 -0.8594027760499104 -3.240904838511498
H -3.0434456102730034 -0.3707479324703424 -4.208435292378479
C -2.7951315215879546 2.6742209726800277 1.5974136127367426
H -3.7529705064995693 2.32794363076086 1.9751763275129701
C -2.8277962741170657 3.8902798295023975 0.7969947368734343
H -3.8180091862033128 4.103331150881645 0.3951695148430517
C -3.1533563205677195 -1.7344562981622111 -0.6233198726966216
H -3.2559123559705343 -2.05491890306641 0.40503877380204556
C -2.0589338731670717 -0.3461278353700262 -2.2538644588341876
H -1.3326994368448408 0.39870647845778745 -2.557339768619497
C -2.890957344559963 5.706145675534483 -1.7999779539367118
H -3.9316154850928293 5.458920517828399 -1.560195484446188
H -2.8342613980703133 5.803746542733556 -2.892145868916634
C -2.1928308899781266 3.417277506822646 -2.2962392869586155
H -3.107345806577182 3.5306334183165697 -2.88808167815064
H -2.3539731554928776 2.509870540360543 -1.7019089198998831
C -2.5122493704383433 7.047966035961111 -1.2060650759331815
H -3.1536919358693 7.275361662307861 -0.34913886815511347
H -2.6802967170155285 7.836861503833204 -1.9485247821937213
H -1.4679910802527836 7.098764798740718 -0.8875891174379351
C -1.0016358153221196 3.2057597590580555 -3.20839597496417
H -0.1900947380835123 2.694529013992071 -2.6797112064546154
H -1.2947336701067247 2.568550360387168 -4.048742893386215
H -0.6124331207968156 4.148437132111271 -3.6001443515656346
Cl 5.097855542893677 1.407200624665045 -4.5227303958923155
O -0.06201972613663015 -1.384607667926895 0.0033405819825573276
N 1.4200941705485581 0.04875689515058032 -0.014011136616201497
N -0.47922223917213713 -3.433280698641634 3.9766881297501815
C 2.144761287675231 0.4161449095704009 -1.150724262690043
C 2.2947795059726412 -0.5826374386092976 0.7632405317170173
H 3.3856167764230864 -0.4161443602348173 0.8196530247638861
C -0.3563702939226043 -3.1744169544098 1.6080637312034773
H -1.4234618772415508 -3.093789196368664 1.457703075945988
C 0.413822763305576 -2.131905387695616 0.8877408796818916
C 0.20716663684780606 -3.580739671549215 2.7633256618234565
C 1.776426323641405 -1.7994775708398878 1.368806783583987
C 3.9703649357487816 1.1222442278491482 -3.258914052775184
C 3.7513834804610857 2.0216909487734886 -2.2816837151636307
H 4.254192830598404 2.979785841228654 -2.256310007367859
C 3.2522544392633725 -0.13837725497574382 -3.237943970075526
H 3.503364554084945 -0.916039047559387 -3.9516298256820837
C 2.4394148871970205 -2.58611079196049 2.221359129787816
H 3.448206363643467 -2.3912333561643018 2.5631209948308102
C 1.6621234700674448 -3.6274591176363313 2.843249939107315
H 2.1057052166856502 -4.20160462182136 3.6518315785646407
C 2.809725833946921 1.7030005362166585 -1.2140251430358147
H 2.589915696339911 2.4389794635792397 -0.4521068414799535
C 2.3342892602755514 -0.4624463565403922 -2.1612445348749882
H 1.8782815127174965 -1.4475927683547722 -2.1423980797933724
C -1.6241180956238033 -4.3328990154347125 4.251344692228882
H -1.9539538972076966 -4.819851505634593 3.324968620076842
H -1.264619589371614 -5.130173328079593 4.911172273228247
C -0.5770321047964694 -2.0259672696573476 4.481089869924844
H -1.0059215174500362 -1.3800746077686168 3.701368997674065
H -1.2317288346529054 -1.9521998127286844 5.347372598186325
C -2.83877276202998 -3.6746747548390175 4.887988458683583
H -3.67428432075731 -4.377817441732516 4.930733694166426
H -2.6265179712436875 -3.369286936193687 5.918606963921929
H -3.166122757732869 -2.796465936540373 4.320576970626016
C 0.7653357265378571 -1.4614434357398598 4.930627686921117
H 1.2812294804901443 -0.9605416272126095 4.106386635065597
H 0.6108044434748945 -0.6992237951713368 5.6996960167837285
H 1.4203147548542612 -2.234162206472516 5.343210111718524


