79
0	2	-124.0895887590162
Cu -0.001519 -0.011857 0.885347
Cl -6.146421 -3.494279 0.930575
O 1.786719 -0.430939 1.092444
N -0.450511 -2.027717 0.550548
N 5.942052 -1.805908 -0.646605
C -1.78727 -2.407874 0.616526
C 0.440794 -2.781697 -0.022137
H 0.119301 -3.753314 -0.409568
C 3.79269 -1.120223 0.187858
H 4.190436 -0.218764 0.623159
C 2.415675 -1.308968 0.393624
C 4.602776 -2.026287 -0.486098
C 1.808349 -2.489207 -0.154889
C -4.470954 -3.073556 0.806749
C -3.801114 -3.276127 -0.387754
H -4.324018 -3.684756 -1.238926
C -3.819545 -2.53448 1.906603
H -4.358231 -2.374518 2.827764
C 2.645139 -3.402434 -0.830373
H 2.193747 -4.296123 -1.240743
C 3.980794 -3.198058 -0.996946
H 4.549906 -3.93257 -1.541126
C -2.462147 -2.944424 -0.480427
H -1.941887 -3.076775 -1.418003
C -2.485726 -2.200346 1.807427
H -1.963276 -1.76442 2.643729
C 6.814942 -2.803209 -1.221962
H 6.479972 -3.793411 -0.905258
H 7.815661 -2.655448 -0.80396
C 6.50854 -0.493491 -0.412814
H 7.596087 -0.589411 -0.43796
H 6.234367 -0.146531 0.587954
C 6.898008 -2.743875 -2.749387
H 5.904611 -2.800866 -3.186928
H 7.493942 -3.57394 -3.12077
H 7.363689 -1.816248 -3.071538
C 6.069543 0.541151 -1.44891
H 4.98807 0.648678 -1.441965
H 6.517857 1.502663 -1.215059
H 6.381075 0.244041 -2.446948
Cl 6.178637 3.376247 1.000068
O -1.802095 0.389171 0.971621
N 0.467446 1.992363 0.538949
N -5.843824 1.748028 -1.028487
C 1.804969 2.365121 0.63269
C -0.40306 2.751093 -0.060124
H -0.064739 3.723491 -0.430738
C -3.755315 1.076211 -0.040645
H -4.163538 0.155133 0.340932
C -2.39498 1.273657 0.250319
C -4.527773 1.980642 -0.759453
C -1.763137 2.460858 -0.253638
C 4.494719 2.993728 0.859183
C 3.845677 3.199342 -0.346156
H 4.386562 3.593557 -1.192671
C 3.817408 2.477419 1.95424
H 4.338909 2.317919 2.885371
C -2.567245 3.380535 -0.960561
H -2.10247 4.289544 -1.319033
C -3.88879 3.169548 -1.207384
H -4.441818 3.924676 -1.739768
C 2.504074 2.885491 -0.456953
H 2.000411 3.016965 -1.403701
C 2.480053 2.162519 1.837699
H 1.938664 1.743319 2.670343
C -6.533303 0.586083 -0.511135
H -6.178437 0.369952 0.49834
H -7.596748 0.829998 -0.438982
C -6.616428 2.594382 -1.910604
H -5.97923 2.98001 -2.709842
H -7.386505 1.977581 -2.382042
C -6.348839 -0.640617 -1.404504
H -6.883303 -1.489002 -0.987036
H -6.730813 -0.445035 -2.404282
H -5.294717 -0.894234 -1.481454
C -7.284779 3.75066 -1.164159
H -6.537771 4.376401 -0.683111
H -7.862562 4.359283 -1.855055
H -7.952421 3.367938 -0.395898
