#p external='/home/rxn_grp/programs/xtb-gaussian'  /sdd opt(nomicro)

R

0 1
Rh -0.0005 0.0 0.000935
C -2.376391 1.180841 2.024408
C -0.97399 0.809617 2.495022
C 0.0 -0.002179 1.524226
O 0.841386 -0.555276 2.266564
H -2.92682 0.293083 1.715805
H -2.915724 1.640124 2.849871
H -2.368742 1.898383 1.202912
H -0.418981 1.718994 2.755655
H -1.043021 0.21668 3.410264
C 0.000129 -0.000218 -1.525758
O 0.069909 0.077067 -2.665909
C -0.000139 1.526016 0.000174
O 0.111356 2.667624 -0.049339
H 0.0 -1.210982 0.0
C 1.525904 -0.000108 0.000546
O 2.658899 0.122335 -0.044799
H -1.211091 0.0 -0.000262


