#p external='/home/rxn_grp/programs/xtb-gaussian'  /sdd opt(nomicro)

R

0 1
V 0.0 0.0 0.0
Cl 1.7849999999999997 0.0 0.0
N 0.004275685959826071 -0.0012537664027210103 1.5705292864846372
N -0.003516645273388373 -0.005108054752514989 -1.567987736234779
O -0.7664999999999973 1.3276169440015457 0.0
O -0.7665000000000287 -1.3276169440015277 0.0
C 0.4623751997266699 1.0759041328742889 2.289477209529051
C 0.6216247842807868 1.023349503469307 3.7247947554469785
C 0.32762909891903036 -0.08283333859544655 4.420858868776944
C -0.15383672795192685 -1.22500668788704 3.6990685487745134
C -0.2830782669831887 -1.0766814516617904 2.234885428755112
C 0.8710091958450001 -0.7821933342356429 -2.3269314489675277
C 0.7109383410862911 -1.0122598093543196 -3.751440400557009
C -0.29091295194386596 -0.4582468029454851 -4.445471735589964
C -1.2075459833486597 0.3767970279888065 -3.7275301635203704
C -0.9719020562524094 0.5370392379545237 -2.2693234734454566
H 0.705674033364814 1.9820168191016252 1.745506349473371
H 0.989275016621721 1.9156285517284495 4.2205330436822495
H 0.4425198269613337 -0.13499354532707944 5.496647972862415
H -0.41508468783847274 -2.1552077658579067 4.17834731941312
H -0.6537918060588147 -1.963807049222332 1.6964687192572434
H 1.7185466567390937 -1.221480681318763 -1.81355563406839
H 1.4359328135675837 -1.6510806137647625 -4.24768147074687
H -0.4218042644156597 -0.621991640002882 -5.510336152384584
H -2.0405379959854644 0.865562444884847 -4.2104600965550665
H -1.7021390706248272 1.1779912861673152 -1.7510882756375876


