26
0	1	-47.046666199981445
V 0.000114 0.000383 0.491164
Cl 0.0 -0.001018 -1.678713
N -2.02572 0.000164 0.249036
N 2.025604 0.0 0.24903
O 0.0 -1.284111 1.324916
O 0.0 1.286199 1.32288
C -2.684278 -1.143141 0.109199
C -4.037392 -1.190674 -0.188158
C -4.729914 -0.000339 -0.344878
C -4.037578 1.190255 -0.189325
C -2.684456 1.14323 0.108086
C 2.684368 1.143183 0.108327
C 4.037492 1.190257 -0.189073
C 4.729813 -0.000312 -0.344883
C 4.037268 -1.190668 -0.188415
C 2.684159 -1.143183 0.108957
H -2.100906 -2.047789 0.245715
H -4.534484 -2.142185 -0.295074
H -5.783805 -0.000539 -0.580447
H -4.534821 2.141581 -0.297179
H -2.101221 2.048096 0.243727
H 2.101152 2.048035 0.244158
H 4.534742 2.141604 -0.296709
H 5.783703 -0.000478 -0.580456
H 4.534347 -2.142163 -0.295531
H 2.100777 -2.047852 0.245285
